Version 4
SHEET 1 4020 760
WIRE 480 -896 384 -896
WIRE 560 -896 480 -896
WIRE 480 -880 480 -896
WIRE 560 -880 560 -896
WIRE 976 -864 864 -864
WIRE 1136 -864 1040 -864
WIRE 384 -848 384 -896
WIRE 480 -768 480 -816
WIRE 544 -768 480 -768
WIRE 560 -768 560 -816
WIRE 560 -768 544 -768
WIRE 864 -736 864 -864
WIRE 960 -736 864 -736
WIRE 1136 -736 1136 -864
WIRE 1136 -736 1040 -736
WIRE 384 -688 384 -768
WIRE 1088 -608 1088 -624
WIRE 1088 -560 1088 -608
WIRE 1088 -560 1056 -560
WIRE 992 -544 928 -544
WIRE 1104 -528 1056 -528
WIRE 368 -512 240 -512
WIRE 496 -512 368 -512
WIRE 640 -512 496 -512
WIRE 864 -512 864 -736
WIRE 864 -512 640 -512
WIRE 976 -512 864 -512
WIRE 992 -512 976 -512
WIRE 1136 -496 1136 -736
WIRE 1136 -496 1056 -496
WIRE 1216 -496 1136 -496
WIRE 1312 -496 1216 -496
WIRE 1536 -496 1440 -496
WIRE 1632 -496 1536 -496
WIRE 240 -464 240 -512
WIRE 368 -464 368 -512
WIRE 640 -464 640 -512
WIRE 496 -448 496 -512
WIRE 1440 -432 1440 -496
WIRE 1104 -400 1104 -528
WIRE 240 -320 240 -400
WIRE 368 -320 368 -384
WIRE 368 -320 240 -320
WIRE 496 -320 496 -384
WIRE 496 -320 368 -320
WIRE 640 -320 640 -384
WIRE 640 -320 496 -320
WIRE 928 -320 928 -544
WIRE 1200 -320 928 -320
WIRE 1280 -320 1200 -320
WIRE 1440 -320 1440 -352
WIRE 1440 -320 1280 -320
WIRE 240 -304 240 -320
WIRE 1200 -304 1200 -320
WIRE 1280 -304 1280 -320
WIRE 1440 -304 1440 -320
WIRE 1200 -192 1200 -240
WIRE 1280 -192 1280 -240
WIRE 1280 -192 1200 -192
WIRE 1440 -192 1440 -224
WIRE 1440 -192 1280 -192
WIRE 1440 -160 1440 -192
FLAG 384 -896 VPOS
FLAG 384 -688 0
FLAG 976 -512 Vn
FLAG 1216 -496 Vout
FLAG 1088 -608 VPOS
FLAG 240 -304 0
FLAG 1536 -496 VPOS
FLAG 1440 -160 0
FLAG 1104 -400 0
FLAG 544 -768 0
SYMBOL res 944 -752 M90
WINDOW 0 0 56 VBottom 2
WINDOW 3 32 56 VTop 2
SYMATTR InstName Rf
SYMATTR Value {Rf}
SYMATTR SpiceLine tol=1 pwr=0.1
SYMBOL cap 1040 -880 R90
WINDOW 0 0 32 VBottom 2
WINDOW 3 32 32 VTop 2
SYMATTR InstName Cf
SYMATTR Value 22p
SYMATTR SpiceLine V=25 Irms=0 Rser=0 Lser=0
SYMBOL voltage 384 -864 R0
WINDOW 123 0 0 Left 0
WINDOW 39 0 0 Left 0
SYMATTR InstName V1
SYMATTR Value 5
SYMBOL diode 256 -400 R180
WINDOW 0 24 64 Left 2
WINDOW 3 24 0 Left 2
SYMATTR InstName D1
SYMBOL current 368 -464 R0
WINDOW 3 -60 176 Left 2
SYMATTR Value SINE({IDC} {IDC*MOD} {Fc})
SYMATTR InstName Id
SYMBOL cap 480 -448 R0
SYMATTR InstName C1
SYMATTR Value {CD}
SYMBOL MCP6001 1024 -528 R0
SYMATTR InstName U1
SYMBOL res 624 -480 R0
SYMATTR InstName R1
SYMATTR Value 1G
SYMBOL res 1424 -320 R0
SYMATTR InstName R2
SYMATTR Value 10k
SYMBOL res 1424 -448 R0
SYMATTR InstName R3
SYMATTR Value 10k
SYMBOL cap 1184 -304 R0
SYMATTR InstName C2
SYMATTR Value 10µF
SYMBOL cap 1264 -304 R0
SYMATTR InstName C3
SYMATTR Value 0.1µF
SYMBOL cap 464 -880 R0
SYMATTR InstName C4
SYMATTR Value 10µF
SYMBOL cap 544 -880 R0
SYMATTR InstName C5
SYMATTR Value 0.1µF
TEXT -96 -808 Left 2 ;.op
TEXT -96 -744 Left 2 !.tran 0 500m 20m 1u
TEXT -96 -680 Left 2 !.options cshunt=1e-15 method=gear
TEXT -128 -464 Left 2 !.param IDC=30u\n.param MOD = 0.44     \n.param Fc  = 930\n.param CD  = 20p   \n.param RF  = 50k
